<?xml version="1.0" encoding="UTF-8"?>
<routes xmlns:xsi="http://www.w3.org/2001/XMLSchema-instance" xsi:noNamespaceSchemaLocation="http://sumo.dlr.de/xsd/routes_file.xsd">
    <!-- VTypes -->
    <vType id="car" length="4.00" minGap="2.50" maxSpeed="70.00" accel="2.6" decel="4.5" sigma="0.5"/>
    <!-- Routes -->
    <route id="route1" edges="E0 E1"/>
    <route id="route2" edges="E2 E1"/>
    <!-- Vehicles, persons and containers (sorted by depart) -->
    <vehicle id="vehicle1" type="car" depart="0" route="route1" departLane="0"/>
    <vehicle id="vehicle2" type="car" depart="1" route="route2" departLane="0"/>
    <vehicle id="vehicle3" type="car" depart="2" route="route1" departLane="0"/>
    <vehicle id="vehicle4" type="car" depart="3" route="route2" departLane="0"/>
</routes>
