<?xml version="1.0" encoding="UTF-8"?>

<!-- generated on 2024-05-20 10:23:02 by Eclipse SUMO netedit Version 1.19.0
<configuration xmlns:xsi="http://www.w3.org/2001/XMLSchema-instance" xsi:noNamespaceSchemaLocation="http://sumo.dlr.de/xsd/neteditConfiguration.xsd">

    <input>
        <sumocfg-file value="/Users/TEEMENGKIAT/sumo_data/tjunction_single/multiple_vehicles_tjunction.sumocfg"/>
        <route-files value="/Users/TEEMENGKIAT/sumo_data/tjunction_single/multiple_demand.rou.xml"/>
        <sumo-net-file value="/Users/TEEMENGKIAT/sumo_data/tjunction_single/tjunction.net.xml"/>
    </input>

    <output>
        <output-file value="/Users/TEEMENGKIAT/sumo_data/tjunction_single/tjunction.net.xml"/>
    </output>

    <processing>
        <geometry.min-radius.fix.railways value="false"/>
        <geometry.max-grade.fix value="false"/>
        <offset.disable-normalization value="true"/>
        <lefthand value="0"/>
    </processing>

    <junctions>
        <no-turnarounds value="true"/>
        <junctions.corner-detail value="5"/>
        <junctions.limit-turn-speed value="5.50"/>
        <rectangular-lane-cut value="0"/>
    </junctions>

    <pedestrian>
        <walkingareas value="0"/>
    </pedestrian>

</configuration>
-->

<net version="1.16" junctionCornerDetail="5" limitTurnSpeed="5.50" xmlns:xsi="http://www.w3.org/2001/XMLSchema-instance" xsi:noNamespaceSchemaLocation="http://sumo.dlr.de/xsd/net_file.xsd">

    <location netOffset="0.00,0.00" convBoundary="-50.00,-50.00,50.00,0.00" origBoundary="-10000000000.00,-10000000000.00,10000000000.00,10000000000.00" projParameter="!"/>

    <edge id=":J2_0" function="internal">
        <lane id=":J2_0_0" index="0" speed="6.51" length="9.03" shape="4.80,-10.40 5.15,-7.95 6.20,-6.20 7.95,-5.15 10.40,-4.80"/>
        <lane id=":J2_0_1" index="1" speed="8.00" length="14.19" shape="1.60,-10.40 2.15,-6.55 3.80,-3.80 6.55,-2.15 10.40,-1.60"/>
    </edge>
    <edge id=":J2_2" function="internal">
        <lane id=":J2_2_0" index="0" speed="13.89" length="14.40" shape="-4.00,-4.80 10.40,-4.80"/>
        <lane id=":J2_2_1" index="1" speed="13.89" length="14.40" shape="-4.00,-1.60 10.40,-1.60"/>
    </edge>

    <edge id="E0" from="A1" to="J2" priority="-1">
        <lane id="E0_0" index="0" speed="13.89" length="46.00" shape="-50.00,-4.80 -4.00,-4.80"/>
        <lane id="E0_1" index="1" speed="13.89" length="46.00" shape="-50.00,-1.60 -4.00,-1.60"/>
    </edge>
    <edge id="E1" from="J2" to="J3" priority="-1">
        <lane id="E1_0" index="0" speed="13.89" length="39.60" shape="10.40,-4.80 50.00,-4.80"/>
        <lane id="E1_1" index="1" speed="13.89" length="39.60" shape="10.40,-1.60 50.00,-1.60"/>
    </edge>
    <edge id="E2" from="J4" to="J2" priority="-1">
        <lane id="E2_0" index="0" speed="13.89" length="39.60" shape="4.80,-50.00 4.80,-10.40"/>
        <lane id="E2_1" index="1" speed="13.89" length="39.60" shape="1.60,-50.00 1.60,-10.40"/>
    </edge>

    <junction id="A1" type="dead_end" x="-50.00" y="0.00" incLanes="" intLanes="" shape="-50.00,0.00 -50.00,-6.40"/>
    <junction id="J2" type="priority" x="0.00" y="0.00" incLanes="E2_0 E2_1 E0_0 E0_1" intLanes=":J2_0_0 :J2_0_1 :J2_2_0 :J2_2_1" shape="10.40,0.00 10.40,-6.40 8.18,-6.84 7.40,-7.40 6.84,-8.18 6.51,-9.18 6.40,-10.40 0.00,-10.40 -0.44,-8.18 -1.00,-7.40 -1.78,-6.84 -2.78,-6.51 -4.00,-6.40 -4.00,0.00">
        <request index="0" response="0000" foes="1100" cont="0"/>
        <request index="1" response="0000" foes="1100" cont="0"/>
        <request index="2" response="0011" foes="0011" cont="0"/>
        <request index="3" response="0011" foes="0011" cont="0"/>
    </junction>
    <junction id="J3" type="dead_end" x="50.00" y="0.00" incLanes="E1_0 E1_1" intLanes="" shape="50.00,-6.40 50.00,0.00"/>
    <junction id="J4" type="dead_end" x="0.00" y="-50.00" incLanes="" intLanes="" shape="0.00,-50.00 6.40,-50.00"/>

    <connection from="E0" to="E1" fromLane="0" toLane="0" via=":J2_2_0" dir="s" state="m"/>
    <connection from="E0" to="E1" fromLane="1" toLane="1" via=":J2_2_1" dir="s" state="m"/>
    <connection from="E2" to="E1" fromLane="0" toLane="0" via=":J2_0_0" dir="r" state="M"/>
    <connection from="E2" to="E1" fromLane="1" toLane="1" via=":J2_0_1" dir="r" state="M"/>

    <connection from=":J2_0" to="E1" fromLane="0" toLane="0" dir="r" state="M"/>
    <connection from=":J2_0" to="E1" fromLane="1" toLane="1" dir="r" state="M"/>
    <connection from=":J2_2" to="E1" fromLane="0" toLane="0" dir="s" state="M"/>
    <connection from=":J2_2" to="E1" fromLane="1" toLane="1" dir="s" state="M"/>

</net>
