<?xml version="1.0" encoding="UTF-8"?>

<!-- generated on 2024-05-20 10:23:02 by Eclipse SUMO sumo Version 1.19.0
-->

<configuration xmlns:xsi="http://www.w3.org/2001/XMLSchema-instance" xsi:noNamespaceSchemaLocation="http://sumo.dlr.de/xsd/sumoConfiguration.xsd">

    <input>
        <net-file value="roundabout.net.xml"/>
        <route-files value="roundabout_demand.rou.xml"/>
    </input>

</configuration>
